/*---------------------------------------------------------------------------*\
| =========                 |                                                 |
| \\      /  F ield         | OpenFOAM: The Open Source CFD Toolbox           |
|  \\    /   O peration     | Version:  1.0                                   |
|   \\  /    A nd           | Web:      http://www.openfoam.org               |
|    \\/     M anipulation  |                                                 |
\*---------------------------------------------------------------------------*/

FoamFile
{
    version         2.0;
    format          ascii;

    root            "";
    case            "";
    instance        "";
    local           "";

    class           dictionary;
    object          fvSolution;
}

// * * * * * * * * * * * * * * * * * * * * * * * * * * * * * * * * * * * * * //

solvers
{
/*
    p_rgh
    {
        solver          GAMG;
        tolerance       1e-7;
        relTol          0.01;
        smoother        GaussSeidel;
        cacheAgglomeration true;
        nCellsInCoarsestLevel 20;
        agglomerator    faceAreaPair;
        mergeLevels     1;
    }
    */

    p_rgh
    {
      solver            PCG;
      preconditioner   DIC;
      tolerance        1e-6;
      relTol           0.1;
    }

    p_rghFinal
    {
        $p_rgh;
        relTol          0;
    }



    p
    {
        solver           PCG;
        preconditioner   DIC;
        tolerance        1e-6;
        relTol           0.1;
    }

    pFinal
    {
        $p;
        tolerance        1e-6;
        relTol           0.0;
    }

     "(U|k|epsilon|h|rho)"
    {
        solver          smoothSolver;
        smoother        symGaussSeidel;
        tolerance       1e-5;
        relTol          0.1;
    }

    "(U|k|epsilon|h|rho)Final"
    {
        $U;
        tolerance       1e-05;
        relTol          0;
    }
    
    Yi
    {
        $UFinal;
    }

    "alpha.*"
    {
        nAlphaCorr      2;
        nAlphaSubCycles 1;

        MULESCorr       yes;
        nLimiterIter    3;
        alphaApplyPrevCorr  yes;

        solver          smoothSolver;
        smoother        symGaussSeidel;
        tolerance       1e-6;
        relTol          0;
        minIter         1;
    }

    "alpha.*Diffusion"
    {
        solver          PCG;
        preconditioner  DIC;
        tolerance       1e-6;
        relTol          0;
        minIter         1;
    }

    Tf
    {
        solver          smoothSolver;
        smoother        symGaussSeidel;
        tolerance       1e-05;
        relTol          0.1;
    }

    TfFinal
    {
        solver          smoothSolver;
        smoother        symGaussSeidel;
        tolerance       1e-05;
        relTol          0.1;
    }

    "moment.*"
    {
        solver          PCG;
        preconditioner  DIC;
        tolerance       1.0e-8;
        relTol          0;
    }

}

PIMPLE
{
    pRefCell          0;
    pRefValue         10;
    momentumPredictor no;
    nCorrectors     2;
    nNonOrthogonalCorrectors 0;
}



// ************************************************************************* //
